tests/data/short_circuit/floating-ground-edge-case/floating-ground-no-error-succeeded-scenarios/wye_n-delta/sc_output_batch.json
{
  "version": "1.0",
  "type": "sc_output",
  "is_batch": true,
  "attributes": {},
  "data": [
    {
      "node": [
        {"id": 1, "energized": 1, "u_pu": [1.099999999999915, 1.0999999999999148, 1.0999999999999148], "u": [6350.852961085393, 6350.8529610853911, 6350.8529610853911], "u_angle": [6.32662511429597e-14, -2.0943951023931322, 2.0943951023932583]},
        {"id": 2, "energized": 1, "u_pu": [0, 1.9051606302941027, 1.9051606302941031], "u": [0, 109.99450027497772, 109.99450027497775], "u_angle": [0, -3.1415926535897301, 2.0943951023932588]}
      ],
      "transformer": [
        {"id": 4, "energized": 1, "i_from": [0.0063506941977342522, 0.0063506941976796162, 0.0063506941976795043], "i_from_angle": [-1.47062890563408, 2.718161299151483, 0.62376619675941836], "i_to": [1.4332917616497527e-12, 0, 2.5639502485114186e-12], "i_to_angle": [2.0344439357957027, 0, 0]}
      ],
      "source": [
        {"id": 3, "energized": 1, "i": [0.0063423001869742516, 0.0063537032307233818, 0.0063427006899470124], "i_angle": [-1.4718835320585038, 2.719133857458762, 0.62472753867362829]}
      ],
      "fault": [
        {"id": 11, "energized": 1, "i_f": [1.4708709339010663e-12, 0, 0], "i_f_angle": [-1.058406866484159, 0, 0]}
      ]
    },
    {
      "node": [
        {},
        {}
      ],
      "transformer": [
        {}
      ],
      "source": [
        {}
      ],
      "fault": [
        {}
      ]
    },
    {
      "node": [
        {"id": 1, "energized": 1, "u_pu": [1.0999999991482572, 1.1000000000884211, 1.0999999994855794], "u": [6350.8529561683436, 6350.8529615963835, 6350.8529581158746], "u_angle": [6.3288339198643598e-10, -2.094395101899674, 2.0943951022162102]},
        {"id": 2, "energized": 1, "u_pu": [0, 0, 1.6499175041246659], "u": [0, 0, 95.258031514705124], "u_angle": [0, 0, 1.5707963267949601]}
      ],
      "transformer": [
        {"id": 4, "energized": 1, "i_from": [63.511704988161526, 31.755852970350585, 31.755852970343597], "i_from_angle": [-1.4706289050004533, 1.6711369406789844, 1.6707905564996959], "i_to": [5499.9999957412856, 5499.9999957412838, 1.2844765415108726e-12], "i_to_angle": [1.67096374858934, -1.4706289050004533, 0.06241880999595735]}
      ],
      "source": [
        {"id": 3, "energized": 1, "i": [63.511700964028492, 31.755848576504697, 31.755865679367034], "i_angle": [-1.4706289010765261, 1.6711374756710209, 1.6707906438796403]}
      ],
      "fault": [
        {"id": 11, "energized": 1, "i_f": [5499.9999957412847, 5499.9999957412838, 0], "i_f_angle": [-1.4706289050004533, 1.6709637485893398, 0]}
      ]
    },
    {
      "node": [
        {"id": 1, "energized": 1, "u_pu": [1.099999999999915, 1.0999999999999148, 1.0999999999999148], "u": [6350.852961085393, 6350.8529610853911, 6350.8529610853911], "u_angle": [6.32662511429597e-14, -2.0943951023931322, 2.0943951023932583]},
        {"id": 2, "energized": 1, "u_pu": [4.6810857756536534e-17, 1.9051606302941024, 1.9051606302941029], "u": [2.7026261326733646e-15, 109.99450027497771, 109.99450027497774], "u_angle": [-0.37107552311696179, -3.1415926535897301, 2.0943951023932588]}
      ],
      "transformer": [
        {"id": 4, "energized": 1, "i_from": [0.0063506941977343329, 0.0063506941976939372, 0.0063506941976847076], "i_from_angle": [-1.4706289056339545, 2.7181612991513924, 0.62376619675882883], "i_to": [1.6024689053196366e-12, 1.2819751242557093e-12, 2.8665835232995054e-12], "i_to_angle": [2.2142974355881808, -1.5707963267948966, 0.46364760900080609]}
      ],
      "source": [
        {"id": 3, "energized": 1, "i": [0.0063423001869742516, 0.0063537032307233818, 0.0063427006899470124], "i_angle": [-1.4718835320585038, 2.719133857458762, 0.62472753867362829]}
      ],
      "fault": [
        {"id": 11, "energized": 1, "i_f": [1.9110452654253098e-12, 0, 0], "i_f_angle": [-1.1564736865144101, 0, 0]}
      ]
    },
    {
      "node": [
        {},
        {}
      ],
      "transformer": [
        {}
      ],
      "source": [
        {}
      ],
      "fault": [
        {}
      ]
    },
    {
      "node": [
        {"id": 1, "energized": 1, "u_pu": [1.0999999991482572, 1.1000000000884211, 1.0999999994855794], "u": [6350.8529561683436, 6350.8529615963835, 6350.8529581158746], "u_angle": [6.3288339198643598e-10, -2.094395101899674, 2.0943951022162102]},
        {"id": 2, "energized": 1, "u_pu": [3.5560909891959048e-17, 3.5560909891959048e-17, 1.6499175041246656], "u": [2.0531100898750582e-15, 2.0531100898750582e-15, 95.25803151470511], "u_angle": [-1.8875760940350859, -1.8875760940350859, 1.5707963267949601]}
      ],
      "transformer": [
        {"id": 4, "energized": 1, "i_from": [63.511704988161526, 31.755852970350585, 31.755852970343597], "i_from_angle": [-1.4706289050004533, 1.6711369406789847, 1.6707905564996957], "i_to": [5499.9999957412856, 5499.9999957412838, 0], "i_to_angle": [1.6709637485893398, -1.4706289050004533, 0]}
      ],
      "source": [
        {"id": 3, "energized": 1, "i": [63.511700964028492, 31.755848576504697, 31.755865679367034], "i_angle": [-1.4706289010765261, 1.6711374756710209, 1.6707906438796403]}
      ],
      "fault": [
        {"id": 11, "energized": 1, "i_f": [5499.9999957412838, 5499.9999957412838, 0], "i_f_angle": [-1.4706289050004535, 1.67096374858934, 0]}
      ]
    }
  ]
}